30 'GENROU'  1   3.7970         0.33000E-01   0.43800       0.70000E-01
                 5.8000         0.00000E+00   2.1340        2.0490         0.31900
                 0.47800        0.22400       0.18500       0.94300E-01    0.48810/



31 'GENROU'  1   3.8260         0.22500E-01   0.50840       0.22500E-01
                 3.4100         0.00000       1.7241        1.6587        0.25860
                 0.45240        0.20290       0.14500       0.14000       0.48000/



32 'GENROU'  1   6.7000         0.35000E-01   0.41000       0.70000E-01
                 6.0500         0.00000E+00   1.8700        1.7400       0.37000
                 0.46700        0.28050       0.23000       0.13750      0.40700/



33 'GENROU'  1   5.8000         0.35000E-01   1.2000        0.54000E-01
                 3.6000         0.00000       1.8600        1.8100       0.28200
                 0.46600        0.23300       0.16400       0.12800      0.45760/



34 'GENROU'  1   3.8260         0.31600E-01   0.50840       0.59200E-01
                 3.4100         0.00000E+00   1.7241        1.6587       0.25860
                 0.45240        0.20290       0.14500       0.12000      0.45000/


                 
35 'GENROU'  1   5.3180         0.53000E-01   0.97000       0.39000E-01
                 5.0160         0.00000       1.8340        1.7980       0.41900
                 0.83000        0.31400       0.26000       0.83300E-01  0.36200/



36 'GENROU'  1   3.8000         0.34000E-01   0.52000       0.58200E-01
                 3.1410         0.00000E+00   1.8400        1.7700       0.28000
                 0.47800        0.21500       0.15500       0.12310      0.47370/


37 'GENROU'  1   3.8000         0.34000E-01   0.52000       0.58200E-01
                 3.1410         0.00000E+00   1.8400        1.7700       0.28000
                 0.47800        0.21500       0.15500       0.12310      0.47370/


38 'GENROU'  1   7.6100         0.43000E-01   0.84000      0.65000E-01
                 5.3200         0.00000E+00   1.6430       1.5730       0.31690
                 0.47930        0.24600       0.19220      0.10710      0.52350/

               
39 'GENCLS' 1  500.00          10.000/ CONSTANT INTERNAL VOLTAGE GENERATOR MODEL

