 00/00/01                      100.0  0    0 0                                                                                                                                                                                                                                                             
BUS DATA FOLLOWS                  118 ITEMS
   1 bus-1   100   1  1  2 0.955 10.972 51.      27.       0.      -3.10409 100.    .95500  15.    -5.      0.      0.        0                                                                                                                                                                            
   2 bus-2   100   1  1    0.971 11.512 20.      9.        0.      0.       100.    1.       0.     0.      0.      0.        0                                                                                                                                                                            
   3 bus-3   100   1  1    0.967 11.856 39.      10.       0.      0.       100.    1.       0.     0.      0.      0.        0                                                                                                                                                                            
   4 bus-4   100   1  1  2 0.998 15.574 30.      12.       -9.     -15.0096 100.    .99800 300.   -300.     0.      0.        0                                                                                                                                                                            
   5 bus-5   100   1  1    1.002 16.019 0.       0.        0.      0.       100.    1.       0.     0.      0.     -0.4       0                                                                                                                                                                            
   6 bus-6   100   1  1  2 0.99  13.291 52.      22.       0.      15.92976 100.    .99000  50.   -13.      0.      0.        0                                                                                                                                                                            
   7 bus-7   100   1  1    0.989 12.847 19.      2.        0.      0.       100.    1.       0.     0.      0.      0.        0                                                                                                                                                                            
   8 bus-8   100   1  1  2 1.015 21.04  0.       0.        -28.    63.13844 100.    1.015  300.   -300.     0.      0.        0                                                                                                                                                                            
   9 bus-9   100   1  1    1.042 28.294 0.       0.        0.      0.       100.    1.       0.     0.      0.      0.        0                                                                                                                                                                            
  10 bus-10  100   1  1  2 1.05  35.875 0.       0.        450.    -51.0421 100.    1.05   200.   -147.     0.      0.        0                                                                                                                                                                            
  11 bus-11  100   1  1    0.985 13.005 70.      23.       0.      0.       100.    1.       0.     0.      0.      0.        0                                                                                                                                                                            
  12 bus-12  100   1  1  2 0.99  12.488 47.      10.       85.     91.29173 100.    .99000 120.   -35.      0.      0.        0                                                                                                                                                                            
  13 bus-13  100   1  1    0.968 11.629 34.      16.       0.      0.       100.    1.       0.     0.      0.      0.        0                                                                                                                                                                            
  14 bus-14  100   1  1    0.983 11.771 14.      1.        0.      0.       100.    1.       0.     0.      0.      0.        0                                                                                                                                                                            
  15 bus-15  100   1  1  2 0.97  11.474 90.      30.       0.      7.160454 100.    .97000  30.   -10.      0.      0.        0                                                                                                                                                                            
  16 bus-16  100   1  1    0.983 12.187 25.      10.       0.      0.       100.    1.       0.     0.      0.      0.        0                                                                                                                                                                            
  17 bus-17  100   1  1    0.995 13.995 11.      3.        0.      0.       100.    1.       0.     0.      0.      0.        0                                                                                                                                                                            
  18 bus-18  100   1  1  2 0.973 11.78  60.      34.       0.      28.42632 100.    .97300  50.   -16.      0.      0.        0                                                                                                                                                                            
  19 bus-19  100   1  1  2 0.962 11.314 45.      25.       0.      -14.2741 100.    .96200  24.    -8.      0.      0.        0                                                                                                                                                                            
  20 bus-20  100   1  1    0.956 12.191 18.      3.        0.      0.       100.    1.       0.     0.      0.      0.        0                                                                                                                                                                            
  21 bus-21  100   1  1    0.957 13.778 14.      8.        0.      0.       100.    1.       0.     0.      0.      0.        0                                                                                                                                                                            
  22 bus-22  100   1  1    0.969 16.331 10.      5.        0.      0.       100.    1.       0.     0.      0.      0.        0                                                                                                                                                                            
  23 bus-23  100   1  1    0.999 21.248 7.       3.        0.      0.       100.    1.       0.     0.      0.      0.        0                                                                                                                                                                            
  24 bus-24  100   1  1  2 0.992 21.113 0.       0.        -13.    -14.9076 100.    .99200 300.   -300.     0.      0.        0                                                                                                                                                                            
  25 bus-25  100   1  1  2 1.05  28.179 0.       0.        220.    50.04325 100.    1.05   140.   -47.      0.      0.        0                                                                                                                                                                            
  26 bus-26  100   1  1  2 1.015 29.96  0.       0.        314.    10.12472 100.    1.015  1000.  -1000.    0.      0.        0                                                                                                                                                                            
  27 bus-27  100   1  1  2 0.968 15.604 62.      13.       -9.     3.982349 100.    .96800 300.   -300.     0.      0.        0                                                                                                                                                                            
  28 bus-28  100   1  1    0.961 13.878 17.      7.        0.      0.       100.    1.       0.     0.      0.      0.        0                                                                                                                                                                            
  29 bus-29  100   1  1    0.963 12.885 24.      4.        0.      0.       100.    1.       0.     0.      0.      0.        0                                                                                                                                                                            
  30 bus-30  100   1  1    0.985 19.033 0.       0.        0.      0.       100.    1.       0.     0.      0.      0.        0                                                                                                                                                                            
  31 bus-31  100   1  1  2 0.967 13.001 43.      27.       7.      32.58601 100.    .96700 300.   -300.     0.      0.        0                                                                                                                                                                            
  32 bus-32  100   1  1  2 0.963 15.06  59.      23.       0.      -16.2847 100.    .96300  42.   -14.      0.      0.        0                                                                                                                                                                            
  33 bus-33  100   1  1    0.97  10.853 23.      9.        0.      0.       100.    1.       0.     0.      0.      0.        0                                                                                                                                                                            
  34 bus-34  100   1  1  2 0.984 11.511 59.      26.       0.      -20.8271 100.    .98400  24.    -8.      0.      0.14      0                                                                                                                                                                            
  35 bus-35  100   1  1    0.98  11.055 33.      9.        0.      0.       100.    1.       0.     0.      0.      0.        0                                                                                                                                                                            
  36 bus-36  100   1  1  2 0.98  11.055 31.      17.       0.      7.725078 100.    .98000  24.    -8.      0.      0.        0                                                                                                                                                                            
  37 bus-37  100   1  1    0.99  11.966 0.       0.        0.      0.       100.    1.       0.     0.      0.     -0.25      0                                                                                                                                                                            
  38 bus-38  100   1  1    0.961 17.107 0.       0.        0.      0.       100.    1.       0.     0.      0.      0.        0                                                                                                                                                                            
  39 bus-39  100   1  1    0.97  8.5766 27.      11.       0.      0.       100.    1.       0.     0.      0.      0.        0                                                                                                                                                                            
  40 bus-40  100   1  1  2 0.97  7.4955 20.      23.       -46.    28.45407 100.    .97000 300.   -300.     0.      0.        0                                                                                                                                                                            
  41 bus-41  100   1  1    0.966 7.0516 37.      10.       0.      0.       100.    1.       0.     0.      0.      0.        0                                                                                                                                                                            
  42 bus-42  100   1  1  2 0.985 8.6529 37.      23.       -59.    41.02957 100.    .98500 300.   -300.     0.      0.        0                                                                                                                                                                            
  43 bus-43  100   1  1    0.977 11.46  18.      7.        0.      0.       100.    1.       0.     0.      0.      0.        0                                                                                                                                                                            
  44 bus-44  100   1  1    0.984 13.943 16.      8.        0.      0.       100.    1.       0.     0.      0.      0.1       0                                                                                                                                                                            
  45 bus-45  100   1  1    0.986 15.772 53.      22.       0.      0.       100.    1.       0.     0.      0.      0.1       0                                                                                                                                                                            
  46 bus-46  100   1  1  2 1.005 18.575 28.      10.       19.     -5.02945 100.    1.005  100.   -100.     0.      0.1       0                                                                                                                                                                            
  47 bus-47  100   1  1    1.017 20.799 34.      0.        0.      0.       100.    1.       0.     0.      0.      0.        0                                                                                                                                                                            
  48 bus-48  100   1  1    1.02  20.018 20.      11.       0.      0.       100.    1.       0.     0.      0.      0.15      0                                                                                                                                                                            
  49 bus-49  100   1  1  2 1.025 21.021 87.      30.       204.    115.8451 100.    1.025  210.   -85.      0.      0.        0                                                                                                                                                                            
  50 bus-50  100   1  1    1.001 18.982 17.      4.        0.      0.       100.    1.       0.     0.      0.      0.        0                                                                                                                                                                            
  51 bus-51  100   1  1    0.966 16.364 17.      8.        0.      0.       100.    1.       0.     0.      0.      0.        0                                                                                                                                                                            
  52 bus-52  100   1  1    0.956 15.41  18.      5.        0.      0.       100.    1.       0.     0.      0.      0.        0                                                                                                                                                                            
  53 bus-53  100   1  1    0.946 14.436 23.      11.       0.      0.       100.    1.       0.     0.      0.      0.        0                                                                                                                                                                            
  54 bus-54  100   1  1  2 0.955 15.348 113.     32.       48.     3.901064 100.    .95500 300.   -300.     0.      0.        0                                                                                                                                                                            
  55 bus-55  100   1  1  2 0.952 15.058 63.      22.       0.      4.664171 100.    .95200  23.    -8.      0.      0.        0                                                                                                                                                                            
  56 bus-56  100   1  1  2 0.954 15.244 84.      18.       0.      -2.28574 100.    .95400  15.    -8.      0.      0.        0                                                                                                                                                                            
  57 bus-57  100   1  1    0.97  16.449 12.      3.        0.      0.       100.    1.       0.     0.      0.      0.        0                                                                                                                                                                            
  58 bus-58  100   1  1    0.959 15.592 12.      3.        0.      0.       100.    1.       0.     0.      0.      0.        0                                                                                                                                                                            
  59 bus-59  100   1  1  2 0.985 19.448 277.     113.      155.    76.83395 100.    .98500 180.   -60.      0.      0.        0                                                                                                                                                                            
  60 bus-60  100   1  1    0.993 23.23  78.      3.        0.      0.       100.    1.       0.     0.      0.      0.        0                                                                                                                                                                            
  61 bus-61  100   1  1  2 0.995 24.121 0.       0.        160.    -40.394  100.    .99500 300.   -100.     0.      0.        0                                                                                                                                                                            
  62 bus-62  100   1  1  2 0.998 23.504 77.      14.       0.      1.258372 100.    .99800  20.   -20.      0.      0.        0                                                                                                                                                                            
  63 bus-63  100   1  1    0.968 22.827 0.       0.        0.      0.       100.    1.       0.     0.      0.      0.        0                                                                                                                                                                            
  64 bus-64  100   1  1    0.983 24.593 0.       0.        0.      0.       100.    1.       0.     0.      0.      0.        0                                                                                                                                                                            
  65 bus-65  100   1  1  2 1.005 27.719 0.       0.        391.    81.51015 100.    1.005  200.   -67.      0.      0.        0                                                                                                                                                                            
  66 bus-66  100   1  1  2 1.05  27.558 39.      18.       392.    -1.95658 100.    1.05   200.   -67.      0.      0.        0                                                                                                                                                                            
  67 bus-67  100   1  1    1.019 24.919 28.      7.        0.      0.       100.    1.       0.     0.      0.      0.        0                                                                                                                                                                            
  68 bus-68  100   1  1    1.003 27.597 0.       0.        0.      0.       100.    1.       0.     0.      0.      0.        0                                                                                                                                                                            
  69 bus-69  100   1  1  3 1.035 30.    0.       0.        513.8628-82.424  100.    1.035  300.   -300.     0.      0.        0                                                                                                                                                                            
  70 bus-70  100   1  1  2 0.984 22.617 66.      20.       0.      9.669292 100.    .98400  32.   -10.      0.      0.        0                                                                                                                                                                            
  71 bus-71  100   1  1    0.986 22.206 0.       0.        0.      0.       100.    1.       0.     0.      0.      0.        0                                                                                                                                                                            
  72 bus-72  100   1  1  2 0.98  21.108 0.       0.        -12.    -11.13   100.    .98000 100.   -100.     0.      0.        0                                                                                                                                                                            
  73 bus-73  100   1  1  2 0.991 21.995 0.       0.        -6.     9.65137  100.    .99100 100.   -100.     0.      0.        0                                                                                                                                                                            
  74 bus-74  100   1  1  2 0.958 21.668 68.      27.       0.      -5.6252  100.    .95800   9.    -6.      0.      0.12      0                                                                                                                                                                            
  75 bus-75  100   1  1    0.967 22.93  47.      11.       0.      0.       100.    1.       0.     0.      0.      0.        0                                                                                                                                                                            
  76 bus-76  100   1  1  2 0.943 21.798 68.      36.       0.      5.2681   100.    .94300  23.    -8.      0.      0.        0                                                                                                                                                                            
  77 bus-77  100   1  1  2 1.006 26.75  61.      28.       0.      12.17036 100.    1.006   70.   -20.      0.      0.        0                                                                                                                                                                            
  78 bus-78  100   1  1    1.003 26.446 71.      26.       0.      0.       100.    1.       0.     0.      0.      0.        0                                                                                                                                                                            
  79 bus-79  100   1  1    1.009 26.745 39.      32.       0.      0.       100.    1.       0.     0.      0.      0.2       0                                                                                                                                                                            
  80 bus-80  100   1  1  2 1.04  28.99  130.     26.       477.    105.4664 100.    1.04   280.   -165.     0.      0.        0                                                                                                                                                                            
  81 bus-81  100   1  1    0.996 28.144 0.       0.        0.      0.       100.    1.       0.     0.      0.      0.        0                                                                                                                                                                            
  82 bus-82  100   1  1    0.988 27.271 54.      27.       0.      0.       100.    1.       0.     0.      0.      0.2       0                                                                                                                                                                            
  83 bus-83  100   1  1    0.984 28.464 20.      10.       0.      0.       100.    1.       0.     0.      0.      0.1       0                                                                                                                                                                            
  84 bus-84  100   1  1    0.979 31.    11.      7.        0.      0.       100.    1.       0.     0.      0.      0.        0                                                                                                                                                                            
  85 bus-85  100   1  1  2 0.985 32.555 24.      15.       0.      -5.60658 100.    .98500  23.    -8.      0.      0.        0                                                                                                                                                                            
  86 bus-86  100   1  1    0.986 31.186 21.      10.       0.      0.       100.    1.       0.     0.      0.      0.        0                                                                                                                                                                            
  87 bus-87  100   1  1  2 1.015 31.445 0.       0.        4.      11.0216  100.    1.015  1000.  -100.     0.      0.        0                                                                                                                                                                            
  88 bus-88  100   1  1    0.987 35.69  48.      10.       0.      0.       100.    1.       0.     0.      0.      0.        0                                                                                                                                                                            
  89 bus-89  100   1  1  2 1.005 39.748 0.       0.        607.    -5.90495 100.    1.005  300.   -210.     0.      0.        0                                                                                                                                                                            
  90 bus-90  100   1  1  2 0.985 33.338 78.      42.       -85.    59.3084  100.    .98500 300.   -300.     0.      0.        0                                                                                                                                                                            
  91 bus-91  100   1  1  2 0.98  33.35  0.       0.        -10.    -13.088  100.    .98000 100.   -100.     0.      0.        0                                                                                                                                                                            
  92 bus-92  100   1  1  2 0.99  33.88  65.      10.       0.      -13.9562 100.    .99000   9.    -3.      0.      0.        0                                                                                                                                                                            
  93 bus-93  100   1  1    0.985 30.849 12.      7.        0.      0.       100.    1.       0.     0.      0.      0.        0                                                                                                                                                                            
  94 bus-94  100   1  1    0.989 28.682 30.      16.       0.      0.       100.    1.       0.     0.      0.      0.        0                                                                                                                                                                            
  95 bus-95  100   1  1    0.98  27.709 42.      31.       0.      0.       100.    1.       0.     0.      0.      0.        0                                                                                                                                                                            
  96 bus-96  100   1  1    0.992 27.542 38.      15.       0.      0.       100.    1.       0.     0.      0.      0.        0                                                                                                                                                                            
  97 bus-97  100   1  1    1.011 27.915 15.      9.        0.      0.       100.    1.       0.     0.      0.      0.        0                                                                                                                                                                            
  98 bus-98  100   1  1    1.023 27.433 34.      8.        0.      0.       100.    1.       0.     0.      0.      0.        0                                                                                                                                                                            