 00/00/01                      100.0  0    0 0                                                                                                                                                                                                                                                             
BUS DATA FOLLOWS                  300 ITEMS
   1 bus-1   100   1  1    1.028 5.9494 90.      49.       0.      0.       100.    1.       0.     0.      0.      0.        0                                                                                                                                                                            
   2 bus-2   100   1  1    1.035 7.7367 56.      15.       0.      0.       100.    1.       0.     0.      0.      0.        0                                                                                                                                                                            
   3 bus-3   100   1  1    0.997 6.6384 20.      0.        0.      0.       100.    1.       0.     0.      0.      0.        0                                                                                                                                                                            
   4 bus-4   100   1  1    1.03  4.7079 0.       0.        0.      0.       100.    1.       0.     0.      0.      0.        0                                                                                                                                                                            
   5 bus-5   100   1  1    1.019 4.6835 353.     130.      0.      0.       100.    1.       0.     0.      0.      0.        0                                                                                                                                                                            
   6 bus-6   100   1  1    1.031 6.9878 120.     41.       0.      0.       100.    1.       0.     0.      0.      0.        0                                                                                                                                                                            
   7 bus-7   100   1  1    0.993 6.1875 0.       0.        0.      0.       100.    1.       0.     0.      0.      0.        0                                                                                                                                                                            
   8 bus-8   100   1  1  2 1.015 2.3969 58.      14.       -5.     9.941603 100.    1.0153  10.   -10.      0.      0.        0                                                                                                                                                                            
   9 bus-9   100   1  1    1.003 2.8535 96.      43.       0.      0.       100.    1.       0.     0.      0.      0.        0                                                                                                                                                                            
  10 bus-10  100   1  1  2 1.02  1.3467 148.     33.       -5.     20.04487 100.    1.0205  20.   -20.      0.      0.        0                                                                                                                                                                            
  11 bus-11  100   1  1    1.005 2.4645 83.      21.       0.      0.       100.    1.       0.     0.      0.      0.        0                                                                                                                                                                            
  12 bus-12  100   1  1    0.997 5.2141 0.       0.        0.      0.       100.    1.       0.     0.      0.      0.        0                                                                                                                                                                            
  13 bus-13  100   1  1    0.997 -0.552 58.      10.       0.      0.       100.    1.       0.     0.      0.      0.        0                                                                                                                                                                            
  14 bus-14  100   1  1    0.999 -4.814 160.     60.       0.      0.       100.    1.       0.     0.      0.      0.        0                                                                                                                                                                            
  15 bus-15  100   1  1    1.034 -8.586 126.7    23.       0.      0.       100.    1.       0.     0.      0.      0.        0                                                                                                                                                                            
  16 bus-16  100   1  1    1.031 -2.649 0.       0.        0.      0.       100.    1.       0.     0.      0.      0.        0                                                                                                                                                                            
  17 bus-17  100   1  1    1.064 -13.1  561.     220.      0.      0.       100.    1.       0.     0.      0.      0.        0                                                                                                                                                                            
  19 bus-19  100   1  1    0.981 1.0808 0.       0.        0.      0.       100.    1.       0.     0.      0.      0.        0                                                                                                                                                                            
  20 bus-20  100   1  1  2 1.001 -2.46  595.     120.      -10.    20.      100.    1.001   20.   -20.      0.      0.        0                                                                                                                                                                            
  21 bus-21  100   1  1    0.975 1.6212 77.      1.        0.      0.       100.    1.       0.     0.      0.      0.        0                                                                                                                                                                            
  22 bus-22  100   1  1    0.996 -1.973 81.      23.       0.      0.       100.    1.       0.     0.      0.      0.        0                                                                                                                                                                            
  23 bus-23  100   1  1    1.05  3.938  21.      7.        0.      0.       100.    1.       0.     0.      0.      0.        0                                                                                                                                                                            
  24 bus-24  100   1  1    1.005 6.02   0.       0.        0.      0.       100.    1.       0.     0.      0.      0.        0                                                                                                                                                                            
  25 bus-25  100   1  1    1.023 1.4393 45.      12.       0.      0.       100.    1.       0.     0.      0.      0.        0                                                                                                                                                                            
  26 bus-26  100   1  1    0.998 -1.734 28.      9.        0.      0.       100.    1.       0.     0.      0.      0.        0                                                                                                                                                                            
  27 bus-27  100   1  1    0.975 -4.896 69.      13.       0.      0.       100.    1.       0.     0.      0.      0.        0                                                                                                                                                                            
  33 bus-33  100   1  1    1.024 -12.02 55.      6.        0.      0.       100.    1.       0.     0.      0.      0.        0                                                                                                                                                                            
  34 bus-34  100   1  1    1.041 -7.937 0.       0.        0.      0.       100.    1.       0.     0.      0.      0.        0                                                                                                                                                                            
  35 bus-35  100   1  1    0.975 -25.72 0.       0.        0.      0.       100.    1.       0.     0.      0.      0.        0                                                                                                                                                                            
  36 bus-36  100   1  1    1.001 -22.59 0.       0.        0.      0.       100.    1.       0.     0.      0.      0.        0                                                                                                                                                                            
  37 bus-37  100   1  1    1.02  -11.23 85.      32.       0.      0.       100.    1.       0.     0.      0.      0.        0                                                                                                                                                                            
  38 bus-38  100   1  1    1.02  -12.56 155.     18.       0.      0.       100.    1.       0.     0.      0.      0.        0                                                                                                                                                                            
  39 bus-39  100   1  1    1.053 -5.811 0.       0.        0.      0.       100.    1.       0.     0.      0.      0.        0                                                                                                                                                                            
  40 bus-40  100   1  1    1.021 -12.77 46.      -21.      0.      0.       100.    1.       0.     0.      0.      0.        0                                                                                                                                                                            
  41 bus-41  100   1  1    1.029 -10.44 86.      0.        0.      0.       100.    1.       0.     0.      0.      0.        0                                                                                                                                                                            
  42 bus-42  100   1  1    1.044 -7.444 0.       0.        0.      0.       100.    1.       0.     0.      0.      0.        0                                                                                                                                                                            
  43 bus-43  100   1  1    1.    -16.78 39.      9.        0.      0.       100.    1.       0.     0.      0.      0.        0                                                                                                                                                                            
  44 bus-44  100   1  1    1.008 -17.46 195.     29.       0.      0.       100.    1.       0.     0.      0.      0.        0                                                                                                                                                                            
  45 bus-45  100   1  1    1.021 -14.73 0.       0.        0.      0.       100.    1.       0.     0.      0.      0.        0                                                                                                                                                                            
  46 bus-46  100   1  1    1.034 -11.75 0.       0.        0.      0.       100.    1.       0.     0.      0.      0.        0                                                                                                                                                                            
  47 bus-47  100   1  1    0.977 -23.16 58.      11.8      0.      0.       100.    1.       0.     0.      0.      0.        0                                                                                                                                                                            
  48 bus-48  100   1  1    1.001 -16.09 41.      19.       0.      0.       100.    1.       0.     0.      0.      0.        0                                                                                                                                                                            
  49 bus-49  100   1  1    1.047 -2.948 92.      26.       0.      0.       100.    1.       0.     0.      0.      0.        0                                                                                                                                                                            
  51 bus-51  100   1  1    1.025 -8.151 -5.      5.        0.      0.       100.    1.       0.     0.      0.      0.        0                                                                                                                                                                            
  52 bus-52  100   1  1    0.997 -11.86 61.      28.       0.      0.       100.    1.       0.     0.      0.      0.        0                                                                                                                                                                            
  53 bus-53  100   1  1    0.995 -17.6  69.      3.        0.      0.       100.    1.       0.     0.      0.      0.        0                                                                                                                                                                            
  54 bus-54  100   1  1    1.005 -16.25 10.      1.        0.      0.       100.    1.       0.     0.      0.      0.        0                                                                                                                                                                            
  55 bus-55  100   1  1    1.015 -12.21 22.      10.       0.      0.       100.    1.       0.     0.      0.      0.        0                                                                                                                                                                            
  57 bus-57  100   1  1    1.033 -7.998 98.      20.       0.      0.       100.    1.       0.     0.      0.      0.        0                                                                                                                                                                            
  58 bus-58  100   1  1    0.991 -5.992 14.      1.        0.      0.       100.    1.       0.     0.      0.      0.        0                                                                                                                                                                            
  59 bus-59  100   1  1    0.978 -5.286 218.     106.      0.      0.       100.    1.       0.     0.      0.      0.        0                                                                                                                                                                            
  60 bus-60  100   1  1    1.024 -9.557 0.       0.        0.      0.       100.    1.       0.     0.      0.      0.        0                                                                                                                                                                            
  61 bus-61  100   1  1    0.99  -3.467 227.     110.      0.      0.       100.    1.       0.     0.      0.      0.        0                                                                                                                                                                            
  62 bus-62  100   1  1    1.016 -1.097 0.       0.        0.      0.       100.    1.       0.     0.      0.      0.        0                                                                                                                                                                            
  63 bus-63  100   1  1  2 0.958 -17.62 70.      30.       0.      25.0016  100.    .9583   25.   -25.      0.      0.        0                                                                                                                                                                            
  64 bus-64  100   1  1    0.947 -12.97 0.       0.        0.      0.       100.    1.       0.     0.      0.      0.        0                                                                                                                                                                            
  69 bus-69  100   1  1    0.963 -25.66 0.       0.        0.      0.       100.    1.       0.     0.      0.      0.        0                                                                                                                                                                            
  70 bus-70  100   1  1    0.951 -35.15 56.      20.       0.      0.       100.    1.       0.     0.      0.      0.        0                                                                                                                                                                            
  71 bus-71  100   1  1    0.979 -29.87 116.     38.       0.      0.       100.    1.       0.     0.      0.      0.        0                                                                                                                                                                            
  72 bus-72  100   1  1    0.969 -27.47 57.      19.       0.      0.       100.    1.       0.     0.      0.      0.        0                                                                                                                                                                            
  73 bus-73  100   1  1    0.977 -25.76 224.     71.       0.      0.       100.    1.       0.     0.      0.      0.        0                                                                                                                                                                            
  74 bus-74  100   1  1    0.996 -22.   0.       0.        0.      0.       100.    1.       0.     0.      0.      0.        0                                                                                                                                                                            
  76 bus-76  100   1  1  2 0.963 -26.54 208.     107.      0.      34.84624 100.    .9632   35.    12.      0.      0.        0                                                                                                                                                                            
  77 bus-77  100   1  1    0.983 -24.94 74.      28.       0.      0.       100.    1.       0.     0.      0.      0.        0                                                                                                                                                                            
  78 bus-78  100   1  1    0.99  -24.05 0.       0.        0.      0.       100.    1.       0.     0.      0.      0.        0                                                                                                                                                                            
  79 bus-79  100   1  1    0.982 -24.97 48.      14.       0.      0.       100.    1.       0.     0.      0.      0.        0                                                                                                                                                                            
  80 bus-80  100   1  1    0.987 -24.97 28.      7.        0.      0.       100.    1.       0.     0.      0.      0.        0                                                                                                                                                                            
  81 bus-81  100   1  1    1.034 -18.88 0.       0.        0.      0.       100.    1.       0.     0.      0.      0.        0                                                                                                                                                                            
  84 bus-84  100   1  1  2 1.025 -17.16 37.      13.       375.    133.0695 100.    1.025  240.   -240.     0.      0.        0                                                                                                                                                                            
  85 bus-85  100   1  1    0.987 -17.67 0.       0.        0.      0.       100.    1.       0.     0.      0.      0.        0                                                                                                                                                                            
  86 bus-86  100   1  1    0.99  -14.18 0.       0.        0.      0.       100.    1.       0.     0.      0.      0.        0                                                                                                                                                                            
  87 bus-87  100   1  1    0.992 -7.765 0.       0.        0.      0.       100.    1.       0.     0.      0.      0.        0                                                                                                                                                                            
  88 bus-88  100   1  1    1.015 -20.95 0.       0.        0.      0.       100.    1.       0.     0.      0.      0.        0                                                                                                                                                                            
  89 bus-89  100   1  1    1.031 -11.13 44.2     0.        0.      0.       100.    1.       0.     0.      0.      0.        0                                                                                                                                                                            
  90 bus-90  100   1  1    1.027 -11.22 66.      0.        0.      0.       100.    1.       0.     0.      0.      0.        0                                                                                                                                                                            
  91 bus-91  100   1  1  2 1.052 -9.402 17.4     0.        155.    43.93155 100.    1.052   96.   -11.      0.      0.        0                                                                                                                                                                            
  92 bus-92  100   1  1  2 1.052 -6.198 15.8     0.        290.    30.96216 100.    1.052  153.   -153.     0.      0.        0                                                                                                                                                                            
  94 bus-94  100   1  1    0.993 -9.419 60.3     0.        0.      0.       100.    1.       0.     0.      0.      0.        0                                                                                                                                                                            
  97 bus-97  100   1  1    1.018 -13.23 39.9     0.        0.      0.       100.    1.       0.     0.      0.      0.        0                                                                                                                                                                            
  98 bus-98  100   1  1  2 1.    -14.6  66.7     0.        68.     -10.7786 100.    1.      56.   -30.      0.      0.        0                                                                                                                                                                            
  99 bus-99  100   1  1    0.989 -20.26 83.5     0.        0.      0.       100.    1.       0.     0.      0.      0.        0                                                                                                                                                                            
 100 bus-100 100   1  1    1.006 -14.44 0.       0.        0.      0.       100.    1.       0.     0.      0.      0.        0                                                                                                                                                                            
 102 bus-102 100   1  1    1.    -15.23 77.8     0.        0.      0.       100.    1.       0.     0.      0.      0.        0                                                                                                                                                                            
 103 bus-103 100   1  1    1.028 -12.06 32.      0.        0.      0.       100.    1.       0.     0.      0.      0.        0                                                                                                                                                                            
 104 bus-104 100   1  1    0.995 -17.32 8.6      0.        0.      0.       100.    1.       0.     0.      0.      0.        0                                                                                                                                                                            
 105 bus-105 100   1  1    1.022 -12.94 49.6     0.        0.      0.       100.    1.       0.     0.      0.      0.        0                                                                                                                                                                            
 107 bus-107 100   1  1    1.009 -16.02 4.6      0.        0.      0.       100.    1.       0.     0.      0.      0.        0                                                                                                                                                                            
 108 bus-108 100   1  1  2 0.99  -20.25 112.1    0.        117.    20.41651 100.    .99     77.   -24.      0.      0.        0                                                                                                                                                                            
 109 bus-109 100   1  1    0.974 -26.06 30.7     0.        0.      0.       100.    1.       0.     0.      0.      0.        0                                                                                                                                                                            
 110 bus-110 100   1  1    0.973 -24.72 63.      0.        0.      0.       100.    1.       0.     0.      0.      0.        0                                                                                                                                                                            
 112 bus-112 100   1  1    0.972 -28.69 19.6     0.        0.      0.       100.    1.       0.     0.      0.      0.        0                                                                                                                                                                            
 113 bus-113 100   1  1    0.97  -25.38 26.2     0.        0.      0.       100.    1.       0.     0.      0.      0.        0                                                                                                                                                                            
 114 bus-114 100   1  1    0.974 -28.58 18.2     0.        0.      0.       100.    1.       0.     0.      0.      0.        0                                                                                                                                                                            
 115 bus-115 100   1  1    0.96  -13.57 0.       0.        0.      0.       100.    1.       0.     0.      0.      0.        0                                                                                                                                                                            
 116 bus-116 100   1  1    1.024 -12.68 0.       0.        0.      0.       100.    1.       0.     0.      0.      0.        0                                                                                                                                                                            
 117 bus-117 100   1  1    0.934 -4.72  0.       0.        0.      0.       100.    1.       0.     0.      0.      3.25      0                                                                                                                                                                            
 118 bus-118 100   1  1    0.929 -4.123 14.1     650.      0.      0.       100.    1.       0.     0.      0.      0.        0                                                                                                                                                                            
 119 bus-119 100   1  1  2 1.043 5.1658 0.       0.        1930.   1050.714 100.    1.0435 1500.  -500.     0.      0.        0                                                                                                                                                                            